Test_Network/condensed/network_5/Feeder_4/Lines.txt
New Line.LINE1 Bus1=1 Bus2=2 phases=3 Linecode=5c_.06 Length=0.41565 Units=m
New Line.LINE2 Bus1=2 Bus2=3 phases=3 Linecode=5c_.06 Length=0.031384 Units=m
New Line.LINE3 Bus1=3 Bus2=4 phases=3 Linecode=5c_.06 Length=0.044408 Units=m
New Line.LINE4 Bus1=4 Bus2=5 phases=3 Linecode=5c_.06 Length=0.058729 Units=m
New Line.LINE5 Bus1=5 Bus2=6 phases=3 Linecode=5c_.06 Length=0.049243 Units=m
New Line.LINE6 Bus1=6 Bus2=7 phases=3 Linecode=5c_.06 Length=0.038627 Units=m
New Line.LINE7 Bus1=7 Bus2=8 phases=3 Linecode=5c_.06 Length=0.038639 Units=m
New Line.LINE8 Bus1=8 Bus2=9 phases=3 Linecode=5c_.06 Length=0.03864 Units=m
New Line.LINE9 Bus1=9 Bus2=10 phases=3 Linecode=5c_.06 Length=0.035354 Units=m
New Line.LINE10 Bus1=10 Bus2=11 phases=3 Linecode=5c_.06 Length=0.076923 Units=m
New Line.LINE11 Bus1=11 Bus2=12 phases=3 Linecode=5c_.06 Length=1.9035 Units=m
New Line.LINE12 Bus1=12 Bus2=13 phases=3 Linecode=5c_.06 Length=0.045879 Units=m
New Line.LINE13 Bus1=13 Bus2=14 phases=3 Linecode=5c_.06 Length=0.033016 Units=m
New Line.LINE14 Bus1=14 Bus2=15 phases=3 Linecode=5c_.06 Length=0.50554 Units=m
New Line.LINE15 Bus1=15 Bus2=16 phases=3 Linecode=5c_.06 Length=0.0436 Units=m
New Line.LINE16 Bus1=16 Bus2=17 phases=3 Linecode=5c_.06 Length=0.07184 Units=m
New Line.LINE17 Bus1=17 Bus2=18 phases=3 Linecode=5c_.06 Length=5.0564 Units=m
New Line.LINE18 Bus1=18 Bus2=19 phases=3 Linecode=5c_.06 Length=3.4914 Units=m
New Line.LINE19 Bus1=19 Bus2=20 phases=3 Linecode=5c_.06 Length=10.5823 Units=m
New Line.LINE20 Bus1=20 Bus2=21 phases=3 Linecode=5c_.06 Length=0.91068 Units=m
New Line.LINE21 Bus1=21 Bus2=22 phases=3 Linecode=5c_.06 Length=0.22632 Units=m
New Line.LINE22 Bus1=22 Bus2=23 phases=3 Linecode=5c_.06 Length=0.10717 Units=m
New Line.LINE23 Bus1=23 Bus2=24 phases=3 Linecode=5c_.06 Length=0.10218 Units=m
New Line.LINE24 Bus1=24 Bus2=25 phases=3 Linecode=5c_.06 Length=0.074433 Units=m
New Line.LINE25 Bus1=25 Bus2=26 phases=3 Linecode=5c_.06 Length=0.057306 Units=m
New Line.LINE26 Bus1=26 Bus2=27 phases=3 Linecode=5c_.06 Length=0.072139 Units=m
New Line.LINE27 Bus1=27 Bus2=28 phases=3 Linecode=5c_.06 Length=0.060441 Units=m
New Line.LINE28 Bus1=28 Bus2=29 phases=3 Linecode=5c_.06 Length=0.24821 Units=m
New Line.LINE29 Bus1=29 Bus2=30 phases=3 Linecode=5c_.1 Length=4.0453 Units=m
New Line.LINE32 Bus1=30 Bus2=33 phases=3 Linecode=5c_.1 Length=3.4496 Units=m
New Line.LINE36 Bus1=33 Bus2=37 phases=3 Linecode=16_PSC Length=0.36508 Units=m
New Line.LINE40 Bus1=37 Bus2=41 phases=3 Linecode=16_PSC Length=0.18019 Units=m
New Line.LINE44 Bus1=41 Bus2=45 phases=3 Linecode=16_PSC Length=0.0622 Units=m
New Line.LINE48 Bus1=45 Bus2=49 phases=3 Linecode=16_PSC Length=0.058941 Units=m
New Line.LINE53 Bus1=49 Bus2=54 phases=3 Linecode=16_PSC Length=0.060406 Units=m
New Line.LINE58 Bus1=54 Bus2=59 phases=3 Linecode=16_PSC Length=0.075214 Units=m
New Line.LINE64 Bus1=59 Bus2=65 phases=3 Linecode=16_PSC Length=0.11741 Units=m
New Line.LINE70 Bus1=65 Bus2=71 phases=3 Linecode=16_PSC Length=0.091401 Units=m
New Line.LINE76 Bus1=71 Bus2=77 phases=3 Linecode=16_PSC Length=0.071119 Units=m
New Line.LINE81 Bus1=77 Bus2=82 phases=3 Linecode=16_PSC Length=0.080056 Units=m
New Line.LINE87 Bus1=82 Bus2=88 phases=3 Linecode=16_PSC Length=3.059 Units=m
New Line.LINE93 Bus1=88 Bus2=94 phases=3 Linecode=16_PSC Length=1.1504 Units=m
New Line.LINE94 Bus1=89 Bus2=95 phases=3 Linecode=5c_.1 Length=11.9463 Units=m
New Line.LINE100 Bus1=94 Bus2=101 phases=3 Linecode=16_PSC Length=0.40003 Units=m
New Line.LINE108 Bus1=101 Bus2=109 phases=3 Linecode=16_PSC Length=0.41013 Units=m
New Line.LINE116 Bus1=109 Bus2=117 phases=3 Linecode=16_PSC Length=0.17603 Units=m
New Line.LINE117 Bus1=110 Bus2=118 phases=3 Linecode=5c_.1 Length=14.8117 Units=m
New Line.LINE118 Bus1=110 Bus2=119 phases=3 Linecode=5c_.1 Length=3.9325 Units=m
New Line.LINE124 Bus1=117 Bus2=125 phases=3 Linecode=16_PSC Length=0.16819 Units=m
New Line.LINE127 Bus1=118 Bus2=128 phases=3 Linecode=5c_.1 Length=7.2907 Units=m
New Line.LINE129 Bus1=119 Bus2=130 phases=3 Linecode=2c_.0145 Length=9.2395 Units=m
New Line.LINE135 Bus1=125 Bus2=136 phases=3 Linecode=16_PSC Length=0.10394 Units=m
New Line.LINE138 Bus1=128 Bus2=139 phases=3 Linecode=5c_.1 Length=10.4189 Units=m
New Line.LINE141 Bus1=130 Bus2=142 phases=3 Linecode=2c_.0145 Length=6.5731 Units=m
New Line.LINE147 Bus1=136 Bus2=148 phases=3 Linecode=16_PSC Length=0.16824 Units=m
New Line.LINE151 Bus1=139 Bus2=152 phases=3 Linecode=5c_.1 Length=8.2743 Units=m
New Line.LINE158 Bus1=148 Bus2=159 phases=3 Linecode=16_PSC Length=0.1023 Units=m
New Line.LINE162 Bus1=152 Bus2=163 phases=3 Linecode=5c_.1 Length=8.0963 Units=m
New Line.LINE170 Bus1=159 Bus2=171 phases=3 Linecode=16_PSC Length=0.2708 Units=m
New Line.LINE176 Bus1=163 Bus2=177 phases=3 Linecode=5c_.1 Length=7.904 Units=m
New Line.LINE182 Bus1=171 Bus2=183 phases=3 Linecode=16_PSC Length=0.75534 Units=m
New Line.LINE190 Bus1=177 Bus2=191 phases=3 Linecode=2c_.0145 Length=8.144 Units=m
New Line.LINE197 Bus1=183 Bus2=198 phases=3 Linecode=16_PSC Length=1.3136 Units=m
New Line.LINE204 Bus1=191 Bus2=205 phases=3 Linecode=2c_.0145 Length=4.4084 Units=m
New Line.LINE209 Bus1=198 Bus2=210 phases=3 Linecode=16_PSC Length=0.10962 Units=m
New Line.LINE218 Bus1=210 Bus2=219 phases=3 Linecode=16_PSC Length=0.067898 Units=m
New Line.LINE227 Bus1=219 Bus2=228 phases=3 Linecode=16_PSC Length=0.079849 Units=m
New Line.LINE235 Bus1=228 Bus2=236 phases=3 Linecode=16_PSC Length=0.10604 Units=m
New Line.LINE241 Bus1=236 Bus2=242 phases=3 Linecode=16_PSC Length=0.129 Units=m
New Line.LINE246 Bus1=242 Bus2=247 phases=3 Linecode=16_PSC Length=0.12618 Units=m
New Line.LINE251 Bus1=247 Bus2=252 phases=3 Linecode=16_PSC Length=0.28486 Units=m
New Line.LINE254 Bus1=252 Bus2=255 phases=3 Linecode=16_PSC Length=6.4586 Units=m
New Line.LINE325 Bus1=322 Bus2=326 phases=3 Linecode=25_SAC_XC Length=0.11424 Units=m
New Line.LINE328 Bus1=326 Bus2=329 phases=3 Linecode=25_SAC_XC Length=2.52 Units=m
New Line.LINE350 Bus1=349 Bus2=351 phases=3 Linecode=5c_.1 Length=4.39 Units=m
New Line.LINE353 Bus1=351 Bus2=354 phases=3 Linecode=5c_.1 Length=4.0781 Units=m
New Line.LINE357 Bus1=354 Bus2=358 phases=3 Linecode=5c_.1 Length=4.9858 Units=m
New Line.LINE362 Bus1=358 Bus2=363 phases=3 Linecode=5c_.1 Length=4.8936 Units=m
New Line.LINE368 Bus1=363 Bus2=369 phases=3 Linecode=5c_.1 Length=6.1064 Units=m
New Line.LINE374 Bus1=369 Bus2=375 phases=3 Linecode=5c_.1 Length=15.2031 Units=m
New Line.LINE380 Bus1=375 Bus2=381 phases=3 Linecode=5c_.1 Length=5.2521 Units=m
New Line.LINE387 Bus1=381 Bus2=388 phases=3 Linecode=5c_.1 Length=1.4743 Units=m
New Line.LINE394 Bus1=388 Bus2=395 phases=3 Linecode=5c_.06 Length=4.3328 Units=m
New Line.LINE401 Bus1=395 Bus2=402 phases=3 Linecode=5c_.06 Length=4.8591 Units=m
New Line.LINE437 Bus1=435 Bus2=438 phases=3 Linecode=5c_.06 Length=4.5372 Units=m
New Line.LINE441 Bus1=438 Bus2=442 phases=3 Linecode=5c_.06 Length=2.3221 Units=m
New Line.LINE443 Bus1=442 Bus2=444 phases=3 Linecode=5c_.06 Length=2.6452 Units=m
New Line.LINE445 Bus1=444 Bus2=446 phases=3 Linecode=2c_.0225 Length=6.3443 Units=m
New Line.LINE447 Bus1=446 Bus2=448 phases=3 Linecode=2c_.0225 Length=11.3018 Units=m
New Line.LINECmpd_0 Bus1=38 Bus2=76 phases=3 Linecode=2c_.0145 Length=12.80948 Units=m
New Line.LINECmpd_1 Bus1=163 Bus2=322 phases=3 Linecode=5c_.1 Length=59.543393 Units=m
New Line.LINECmpd_2 Bus1=322 Bus2=349 phases=3 Linecode=5c_.1 Length=50.1819 Units=m
New Line.LINECmpd_3 Bus1=78 Bus2=277 phases=3 Linecode=16_PSC Length=16.546871 Units=m
New Line.LINECmpd_4 Bus1=95 Bus2=195 phases=3 Linecode=25_SAC_XC Length=14.75496 Units=m
New Line.LINECmpd_5 Bus1=163 Bus2=204 phases=3 Linecode=.0225 Length=12.8793 Units=m
New Line.LINECmpd_6 Bus1=118 Bus2=199 phases=3 Linecode=16_PSC Length=13.29812 Units=m
New Line.LINECmpd_7 Bus1=139 Bus2=248 phases=3 Linecode=16_PSC Length=12.431809 Units=m
New Line.LINECmpd_8 Bus1=369 Bus2=405 phases=3 Linecode=2c_.0225 Length=12.41835 Units=m
New Line.LINECmpd_9 Bus1=46 Bus2=235 phases=3 Linecode=16_PSC Length=17.90537 Units=m
New Line.LINECmpd_10 Bus1=351 Bus2=387 phases=3 Linecode=2c_.0225 Length=11.83921 Units=m
New Line.LINECmpd_11 Bus1=412 Bus2=445 phases=3 Linecode=2c_.0225 Length=12.29249 Units=m
New Line.LINECmpd_12 Bus1=89 Bus2=144 phases=3 Linecode=25_SAC_XC Length=13.996288 Units=m
New Line.LINECmpd_13 Bus1=435 Bus2=440 phases=3 Linecode=2c_.0225 Length=15.3707 Units=m
New Line.LINECmpd_14 Bus1=30 Bus2=38 phases=3 Linecode=5c_.1 Length=15 Units=m
New Line.LINECmpd_15 Bus1=354 Bus2=394 phases=3 Linecode=2c_.0225 Length=13.02924 Units=m
New Line.LINECmpd_16 Bus1=363 Bus2=399 phases=3 Linecode=2c_.0225 Length=11.83048 Units=m
New Line.LINECmpd_17 Bus1=381 Bus2=425 phases=3 Linecode=25_SAC_XC Length=12.4676 Units=m
New Line.LINECmpd_18 Bus1=55 Bus2=78 phases=3 Linecode=5c_.1 Length=10.63754 Units=m
New Line.LINECmpd_19 Bus1=375 Bus2=415 phases=3 Linecode=2c_.0225 Length=11.80815 Units=m
New Line.LINECmpd_20 Bus1=349 Bus2=374 phases=3 Linecode=2c_.0225 Length=11.91334 Units=m
New Line.LINECmpd_21 Bus1=395 Bus2=421 phases=3 Linecode=2c_.0225 Length=12.23632 Units=m
New Line.LINECmpd_22 Bus1=402 Bus2=433 phases=3 Linecode=2c_.0225 Length=10.68714 Units=m
New Line.LINECmpd_23 Bus1=95 Bus2=110 phases=3 Linecode=5c_.1 Length=4.212621 Units=m
New Line.LINECmpd_24 Bus1=423 Bus2=435 phases=3 Linecode=5c_.06 Length=17.4341 Units=m
New Line.LINECmpd_25 Bus1=55 Bus2=68 phases=3 Linecode=2c_.0145 Length=14.588 Units=m
New Line.LINECmpd_26 Bus1=412 Bus2=423 phases=3 Linecode=5c_.06 Length=4.1401 Units=m
New Line.LINECmpd_27 Bus1=152 Bus2=174 phases=3 Linecode=2c_.0145 Length=13.6103 Units=m
New Line.LINECmpd_28 Bus1=128 Bus2=150 phases=3 Linecode=2c_.0145 Length=13.3844 Units=m
New Line.LINECmpd_29 Bus1=358 Bus2=400 phases=3 Linecode=2c_.0225 Length=12.21679 Units=m
New Line.LINECmpd_30 Bus1=402 Bus2=412 phases=3 Linecode=5c_.06 Length=6.4783 Units=m
New Line.LINECmpd_31 Bus1=38 Bus2=46 phases=3 Linecode=5c_.1 Length=7.8779 Units=m
New Line.LINECmpd_32 Bus1=423 Bus2=431 phases=3 Linecode=2c_.0225 Length=11.8907 Units=m
New Line.LINECmpd_33 Bus1=78 Bus2=89 phases=3 Linecode=5c_.1 Length=9.87563 Units=m
New Line.LINECmpd_34 Bus1=46 Bus2=55 phases=3 Linecode=5c_.1 Length=9.6487 Units=m
